OMIB.cf
 04/15/2019 UCB test             100.0 0    0
BUS DATA FOLLOWS                      4 ITEMS
   1 SYS           1  1  3 1.0000   0.00     0.00     0.00    -2.46   -0.45   69.00 1.0000   99.00  -99.00  0.0000  0.0000    0    1
   2 GEN           1  1  2 1.0500  10.12     0.00     0.00     2.46    0.92   69.00 1.0000   99.00  -99.00  0.0000  0.0000    0    2
-999
BRANCH DATA FOLLOWS                   3 ITEMS
   1    2  0  0 1 0  0.000000  0.0750000   0.0000   0   0     0             1.0    0  0.0000    0.00 0.0000 0.00000.00000  0.0000 0.0000     1
-999
LOSS ZONES FOLLOWS                    0 ITEMS
-99
INTERCHANGE DATA FOLLOWS              1 ITEMS                                                                                     1
-9
TIE LINES FOLLOW                      0 ITEMS
-999
END OF DATA
